<additional>
  <edgeGroup id="all_edges" edges="-E4 -E7 -E8 477603177_01 477603177_02 477603222_01 477603228_01 477603302_01_01 477603302_01_02 477603302_02_01 477603302_02_02 477603993_01_01 477603993_01_02 477603993_02_01 477603993_02_02 477604020_01 477604020_02 477604040_0101_01 477604040_0101_02 477604040_0102_01 477604040_0102_02 477604040_02_01 477604040_02_02 477604094_01 477604094_02 477604115_01_01 477604115_01_02 477604115_0201_01 477604115_0201_02 477604168_01 477604168_02 477604175_01 477604175_02 477604193_01 477604193_02 477604194_01_01 477604194_01_02 477604194_02_01 477604194_02_02 477604200_01_01 477604200_01_02 477604200_02_01 477604200_02_02 477604248_01_01 477604248_01_02 477604248_0201_01 477604248_0201_02 477604248_0202_01 477604248_0202_02 477604628_01 477604628_02 477604635_01 477604635_02 477604732_01 477604732_02 477604739_01_01 477604739_01_02 477604739_02_01 477604739_02_02 477604809_01 477604809_02 477604827_010101_01 477604827_010101_02 477604827_010102_01 477604827_010102_02 477604827_0102_01 477604827_0102_02 477604827_02_01 477604827_02_02 477605406_01 477605406_02 477605419_01 477605419_02 477605452_01 477605452_02 477605619_01 477605619_02 477605685_01 477605685_02 477610002_01 477610002_02 477610003_0101_01 477610003_0101_02 477610003_0102_01 477610003_0102_02 477610003_02_01 477610003_02_02 477610004_01_01 477610004_01_02 477610004_02_01 477610004_02_02 477610032_01 477610032_02 477610033_01_01 477610033_01_02 477610033_02_01 477610033_02_02 477610040_01_01 477610040_01_02 477610040_02_01 477610040_02_02 477610041_01 477610041_02 477610053_02020202_01 477610053_02020202_02 477610076_01 477610076_02 477610475_01 477610475_02 477643145_01 477643146_01 477643147_01 477643148_01 477643149_0101_01 477643149_0101_02 477643149_010201_01 477643149_010201_02 477643149_010202_01 477643149_010202_02 477643149_02_01 477643149_02_02 477643150_01 477643150_02 477643151_01 477643151_02 477643153_01 477643153_02 477643154_02020102_01 477643154_02020102_02 477643154_0202020101_01 477643154_0202020101_02 477643154_0202020102_01 477643154_0202020102_02 477643154_02020202_01 477643154_02020202_02 477648050_010101_01 477648050_010101_02 477648050_0202_01 477648050_0202_02 477648264_0101_01 477648264_0101_02 477648264_0102_01 477648264_0102_02 477648264_0201_01 477648264_0201_02 477648264_020201_01 477648264_020201_02 477648264_020202_01 477648264_020202_02 477648265_01_01 477648265_01_02 477648265_02_01 477648265_02_02 477648987_01 477648987_02 477649507_01_01 477649507_01_02 477649507_02_01 477649507_02_02 477649508_01_01 477649508_01_02 477649508_0201_01 477649508_0201_02 477649508_0202_01 477649508_0202_02 477649509_01 477649509_02 477649511_01 477649511_02 477649534_01_01 477649534_01_02 477649534_02_01 477649534_02_02 477649536_01 477649536_02 477649538_0101_01 477649538_0101_02 477649538_0102_01 477649538_0102_02 477649538_02_01 477649538_02_02 477649540_01 477649540_02 477649543_01 477649543_02 477649545_01 477649545_02 477649546_01 477649546_02 477649552_01 477649552_02 477649555_01 477649555_02 477649557_01 477649557_02 477649559_01 477649559_02 477649560_01 477649560_02 477649561_01_01 477649561_01_02 477649571_010101_01 477649571_010101_02 477649571_010102_01 477649571_010102_02 477649571_0102_01 477649571_0102_02 477649571_02_01 477649571_02_02 477649575_01_01 477649575_01_02 477649575_02_01 477649575_02_02 477649576_01 477649576_02 477649578_010101_01 477649578_010101_02 477649578_01010201_01 477649578_01010201_02 477649578_01010202_01 477649578_01010202_02 477649578_0102_01 477649578_0102_02 477649578_02_01 477649578_02_02 477649580_01_01 477649580_01_02 477649588_0101_01 477649588_0101_02 477649588_0202_01 477649588_0202_02 477651435_01 477651435_02 477651437_0101_01 477651437_0101_02 477651437_0102_01 477651437_0102_02 477651437_02_01 477651437_02_02 477651439_01 477651439_02 477653357_01 477653357_02 477654134_01 477654134_02 477654162_01 477654162_02 477654165_01 477654165_02 477655706_01 477655706_02 477655738_01 477655738_02 477656844_01 477656844_02 477656846_01 477656846_02 477656848_01 477656848_02 477657424_01 477657424_02 477658274_01 477658274_02 477660958_01 477660958_02 477666530_01 477666530_02 477666532_0102_01 477666532_0102_02 477666532_02_01 477666532_02_02 477666868_01_01 477666868_01_02 477666868_02_01 477666868_02_02 477670332_01 477670332_02 477672542_01 477672542_02 477672544_01 477672544_02 477672552_01 477672552_02 477703393_01 477703393_02 477703597_01 477703597_02 477703787_01 477703787_02 477703841_01 477703841_02 477704547_01 477704547_02 477704569_01 477704569_02 477704969_01 477704969_02 477706260_01_01 477706260_01_02 477706260_02_01 477706260_02_02 477706392_01 477706392_02 477706439_01 477706439_02 477706520_01 477706883_01 477706883_01_01 477706883_01_02 477706883_02 477706883_0201_01 477706883_0201_02 477706911_01 477706911_01_01 477706911_01_02 477706911_02_02 477706926_0101_01 477706926_0101_02 477706926_0102_01 477706926_0102_02 477706926_02_01 477706926_02_02 477706931_01_01 477706931_01_02 477707011_01 477707011_02 477707013_01 477707013_02 477707232_01_01 477707232_01_02 477710458_01 477710458_02 477712245_01 477714166_01_01 477714166_02_01 477714244_01_01 477714244_02_01 477714888_01 477714888_02 477714892_01 477714892_02 477714896_01 477714896_02 477715088_0101_01 477715088_0101_02 477715088_0102_01 477715088_0102_02 477715088_02_01 477715088_02_02 477715096_01_01 477715096_02_01 477744390_01 477744390_02 477744474_01 477744474_02 477748635_01 477748640_01 477748643_01 477748647_01 477748651_01 477748652_01 477748715_01 477748716_01 477750128_01 477750128_02 477750630_01 477750634_01 477750635_01 477750639_01 477750729_01 477750729_02 477752894_0101_01 477752894_0101_02 477752894_0102_01 477752894_0102_02 477752894_020101_01 477752894_020101_02 477752894_020102_01 477752894_020102_02 477752894_020201_01 477752894_020201_02 477752894_020202_01 477752894_020202_02 477753312_0101_01 477753312_0101_02 477753313_01 477753313_02 477753314_01 477753314_02 477754783_02_01 477754783_02_02 477754785_01_01 477754785_0201_01 477754785_0202_01 477755532_01_01 477755532_01_02 477755532_02_01 477755532_02_02 477757552_01 477757552_02 477757554_01 477757554_02 477759062_01_01 477759062_01_02 477765074_01 477765078_01 477767118_0101_01 477767118_0101_02 477767118_0102_01 477767118_0102_02 477767666_01_01 477767666_02_01 477770958_0101_01 477770958_0101_02 477770958_0102_01 477770958_0102_02 477770958_02_01 477771448_01 477771449_01 477771449_02 477771450_01 477771450_02 477771559_01_01 477771559_0201_01 477771559_0202_01 477771614_01 477771614_02 477771615_01 477771615_02 477771616_01 477771616_02 CL20220622172647A_01 CL20220928231319G_01 CL20220928231319G_02 E1 E3 E4 E7 E8"/>
</additional>
