<configuration>
  <input>
    <net-file value="1200012n.net.xml"/>
    <route-files value="possible_routes.rou.xml,exp.rou.xml"/>
  </input>
  <time begin="0" end="86400"/>
</configuration>