<additional>
  <e2Detector id="det_-E4_0" lane="-E4_0" pos="0" endPos="26.79" freq="60" file="detectors_output.xml"/>
  <e2Detector id="det_-E4_1" lane="-E4_1" pos="0" endPos="26.79" freq="60" file="detectors_output.xml"/>
  <e2Detector id="det_-E7_0" lane="-E7_0" pos="0" endPos="93.53" freq="60" file="detectors_output.xml"/>
  <e2Detector id="det_-E7_1" lane="-E7_1" pos="0" endPos="93.53" freq="60" file="detectors_output.xml"/>
  <e2Detector id="det_-E7_2" lane="-E7_2" pos="0" endPos="93.53" freq="60" file="detectors_output.xml"/>
  <e2Detector id="det_-E8_0" lane="-E8_0" pos="0" endPos="63.72" freq="60" file="detectors_output.xml"/>
  <e2Detector id="det_-E8_1" lane="-E8_1" pos="0" endPos="63.72" freq="60" file="detectors_output.xml"/>
  <e2Detector id="det_-E8_2" lane="-E8_2" pos="0" endPos="63.72" freq="60" file="detectors_output.xml"/>
  <e2Detector id="det_477603177_01_0" lane="477603177_01_0" pos="0" endPos="41.31" freq="60" file="detectors_output.xml"/>
  <e2Detector id="det_477603177_02_0" lane="477603177_02_0" pos="0" endPos="41.29" freq="60" file="detectors_output.xml"/>
  <e2Detector id="det_477603222_01_0" lane="477603222_01_0" pos="0" endPos="138.79" freq="60" file="detectors_output.xml"/>
  <e2Detector id="det_477603228_01_0" lane="477603228_01_0" pos="0" endPos="240.04" freq="60" file="detectors_output.xml"/>
  <e2Detector id="det_477603302_01_01_0" lane="477603302_01_01_0" pos="0" endPos="62.47" freq="60" file="detectors_output.xml"/>
  <e2Detector id="det_477603302_01_02_0" lane="477603302_01_02_0" pos="0" endPos="62.47" freq="60" file="detectors_output.xml"/>
  <e2Detector id="det_477603302_01_02_1" lane="477603302_01_02_1" pos="0" endPos="62.47" freq="60" file="detectors_output.xml"/>
  <e2Detector id="det_477603302_02_01_0" lane="477603302_02_01_0" pos="0" endPos="69.44" freq="60" file="detectors_output.xml"/>
  <e2Detector id="det_477603302_02_02_0" lane="477603302_02_02_0" pos="0" endPos="69.44" freq="60" file="detectors_output.xml"/>
  <e2Detector id="det_477603302_02_02_1" lane="477603302_02_02_1" pos="0" endPos="69.44" freq="60" file="detectors_output.xml"/>
  <e2Detector id="det_477603993_01_01_0" lane="477603993_01_01_0" pos="0" endPos="64.03" freq="60" file="detectors_output.xml"/>
  <e2Detector id="det_477603993_01_01_1" lane="477603993_01_01_1" pos="0" endPos="64.03" freq="60" file="detectors_output.xml"/>
  <e2Detector id="det_477603993_01_02_0" lane="477603993_01_02_0" pos="0" endPos="64.03" freq="60" file="detectors_output.xml"/>
  <e2Detector id="det_477603993_01_02_1" lane="477603993_01_02_1" pos="0" endPos="64.03" freq="60" file="detectors_output.xml"/>
  <e2Detector id="det_477603993_02_01_0" lane="477603993_02_01_0" pos="0" endPos="67.79" freq="60" file="detectors_output.xml"/>
  <e2Detector id="det_477603993_02_01_1" lane="477603993_02_01_1" pos="0" endPos="67.79" freq="60" file="detectors_output.xml"/>
  <e2Detector id="det_477603993_02_01_2" lane="477603993_02_01_2" pos="0" endPos="67.79" freq="60" file="detectors_output.xml"/>
  <e2Detector id="det_477603993_02_02_0" lane="477603993_02_02_0" pos="0" endPos="67.79" freq="60" file="detectors_output.xml"/>
  <e2Detector id="det_477603993_02_02_1" lane="477603993_02_02_1" pos="0" endPos="67.79" freq="60" file="detectors_output.xml"/>
  <e2Detector id="det_477604020_01_0" lane="477604020_01_0" pos="0" endPos="22.84" freq="60" file="detectors_output.xml"/>
  <e2Detector id="det_477604020_01_1" lane="477604020_01_1" pos="0" endPos="22.84" freq="60" file="detectors_output.xml"/>
  <e2Detector id="det_477604020_02_0" lane="477604020_02_0" pos="0" endPos="22.84" freq="60" file="detectors_output.xml"/>
  <e2Detector id="det_477604020_02_1" lane="477604020_02_1" pos="0" endPos="22.84" freq="60" file="detectors_output.xml"/>
  <e2Detector id="det_477604020_02_2" lane="477604020_02_2" pos="0" endPos="22.84" freq="60" file="detectors_output.xml"/>
  <e2Detector id="det_477604040_0101_01_0" lane="477604040_0101_01_0" pos="0" endPos="39.31" freq="60" file="detectors_output.xml"/>
  <e2Detector id="det_477604040_0101_01_1" lane="477604040_0101_01_1" pos="0" endPos="39.31" freq="60" file="detectors_output.xml"/>
  <e2Detector id="det_477604040_0101_02_0" lane="477604040_0101_02_0" pos="0" endPos="39.31" freq="60" file="detectors_output.xml"/>
  <e2Detector id="det_477604040_0101_02_1" lane="477604040_0101_02_1" pos="0" endPos="39.31" freq="60" file="detectors_output.xml"/>
  <e2Detector id="det_477604040_0102_01_0" lane="477604040_0102_01_0" pos="0" endPos="34.02" freq="60" file="detectors_output.xml"/>
  <e2Detector id="det_477604040_0102_01_1" lane="477604040_0102_01_1" pos="0" endPos="34.02" freq="60" file="detectors_output.xml"/>
  <e2Detector id="det_477604040_0102_02_0" lane="477604040_0102_02_0" pos="0" endPos="34.02" freq="60" file="detectors_output.xml"/>
  <e2Detector id="det_477604040_0102_02_1" lane="477604040_0102_02_1" pos="0" endPos="34.02" freq="60" file="detectors_output.xml"/>
  <e2Detector id="det_477604040_02_01_0" lane="477604040_02_01_0" pos="0" endPos="32.62" freq="60" file="detectors_output.xml"/>
  <e2Detector id="det_477604040_02_01_1" lane="477604040_02_01_1" pos="0" endPos="32.62" freq="60" file="detectors_output.xml"/>
  <e2Detector id="det_477604040_02_02_0" lane="477604040_02_02_0" pos="0" endPos="32.62" freq="60" file="detectors_output.xml"/>
  <e2Detector id="det_477604040_02_02_1" lane="477604040_02_02_1" pos="0" endPos="32.62" freq="60" file="detectors_output.xml"/>
  <e2Detector id="det_477604094_01_0" lane="477604094_01_0" pos="0" endPos="55.14" freq="60" file="detectors_output.xml"/>
  <e2Detector id="det_477604094_01_1" lane="477604094_01_1" pos="0" endPos="55.14" freq="60" file="detectors_output.xml"/>
  <e2Detector id="det_477604094_02_0" lane="477604094_02_0" pos="0" endPos="55.1" freq="60" file="detectors_output.xml"/>
  <e2Detector id="det_477604094_02_1" lane="477604094_02_1" pos="0" endPos="55.1" freq="60" file="detectors_output.xml"/>
  <e2Detector id="det_477604094_02_2" lane="477604094_02_2" pos="0" endPos="55.1" freq="60" file="detectors_output.xml"/>
  <e2Detector id="det_477604115_01_01_0" lane="477604115_01_01_0" pos="0" endPos="17.82" freq="60" file="detectors_output.xml"/>
  <e2Detector id="det_477604115_01_01_1" lane="477604115_01_01_1" pos="0" endPos="17.82" freq="60" file="detectors_output.xml"/>
  <e2Detector id="det_477604115_01_02_0" lane="477604115_01_02_0" pos="0" endPos="17.82" freq="60" file="detectors_output.xml"/>
  <e2Detector id="det_477604115_01_02_1" lane="477604115_01_02_1" pos="0" endPos="17.82" freq="60" file="detectors_output.xml"/>
  <e2Detector id="det_477604115_0201_01_0" lane="477604115_0201_01_0" pos="0" endPos="48.39" freq="60" file="detectors_output.xml"/>
  <e2Detector id="det_477604115_0201_01_1" lane="477604115_0201_01_1" pos="0" endPos="48.39" freq="60" file="detectors_output.xml"/>
  <e2Detector id="det_477604115_0201_01_2" lane="477604115_0201_01_2" pos="0" endPos="48.39" freq="60" file="detectors_output.xml"/>
  <e2Detector id="det_477604115_0201_02_0" lane="477604115_0201_02_0" pos="0" endPos="48.39" freq="60" file="detectors_output.xml"/>
  <e2Detector id="det_477604115_0201_02_1" lane="477604115_0201_02_1" pos="0" endPos="48.39" freq="60" file="detectors_output.xml"/>
  <e2Detector id="det_477604168_01_0" lane="477604168_01_0" pos="0" endPos="38.81" freq="60" file="detectors_output.xml"/>
  <e2Detector id="det_477604168_01_1" lane="477604168_01_1" pos="0" endPos="38.81" freq="60" file="detectors_output.xml"/>
  <e2Detector id="det_477604168_02_0" lane="477604168_02_0" pos="0" endPos="38.81" freq="60" file="detectors_output.xml"/>
  <e2Detector id="det_477604168_02_1" lane="477604168_02_1" pos="0" endPos="38.81" freq="60" file="detectors_output.xml"/>
  <e2Detector id="det_477604175_01_0" lane="477604175_01_0" pos="0" endPos="61.44" freq="60" file="detectors_output.xml"/>
  <e2Detector id="det_477604175_01_1" lane="477604175_01_1" pos="0" endPos="61.44" freq="60" file="detectors_output.xml"/>
  <e2Detector id="det_477604175_02_0" lane="477604175_02_0" pos="0" endPos="61.46" freq="60" file="detectors_output.xml"/>
  <e2Detector id="det_477604175_02_1" lane="477604175_02_1" pos="0" endPos="61.46" freq="60" file="detectors_output.xml"/>
  <e2Detector id="det_477604193_01_0" lane="477604193_01_0" pos="0" endPos="42.63" freq="60" file="detectors_output.xml"/>
  <e2Detector id="det_477604193_01_1" lane="477604193_01_1" pos="0" endPos="42.63" freq="60" file="detectors_output.xml"/>
  <e2Detector id="det_477604193_01_2" lane="477604193_01_2" pos="0" endPos="42.63" freq="60" file="detectors_output.xml"/>
  <e2Detector id="det_477604193_01_3" lane="477604193_01_3" pos="0" endPos="42.63" freq="60" file="detectors_output.xml"/>
  <e2Detector id="det_477604193_02_0" lane="477604193_02_0" pos="0" endPos="42.63" freq="60" file="detectors_output.xml"/>
  <e2Detector id="det_477604193_02_1" lane="477604193_02_1" pos="0" endPos="42.63" freq="60" file="detectors_output.xml"/>
  <e2Detector id="det_477604194_01_01_0" lane="477604194_01_01_0" pos="0" endPos="31.21" freq="60" file="detectors_output.xml"/>
  <e2Detector id="det_477604194_01_01_1" lane="477604194_01_01_1" pos="0" endPos="31.21" freq="60" file="detectors_output.xml"/>
  <e2Detector id="det_477604194_01_02_0" lane="477604194_01_02_0" pos="0" endPos="31.21" freq="60" file="detectors_output.xml"/>
  <e2Detector id="det_477604194_01_02_1" lane="477604194_01_02_1" pos="0" endPos="31.21" freq="60" file="detectors_output.xml"/>
  <e2Detector id="det_477604194_01_02_2" lane="477604194_01_02_2" pos="0" endPos="31.21" freq="60" file="detectors_output.xml"/>
  <e2Detector id="det_477604194_01_02_3" lane="477604194_01_02_3" pos="0" endPos="31.21" freq="60" file="detectors_output.xml"/>
  <e2Detector id="det_477604194_02_01_0" lane="477604194_02_01_0" pos="0" endPos="28.9" freq="60" file="detectors_output.xml"/>
  <e2Detector id="det_477604194_02_01_1" lane="477604194_02_01_1" pos="0" endPos="28.9" freq="60" file="detectors_output.xml"/>
  <e2Detector id="det_477604194_02_01_2" lane="477604194_02_01_2" pos="0" endPos="28.9" freq="60" file="detectors_output.xml"/>
  <e2Detector id="det_477604194_02_02_0" lane="477604194_02_02_0" pos="0" endPos="28.9" freq="60" file="detectors_output.xml"/>
  <e2Detector id="det_477604194_02_02_1" lane="477604194_02_02_1" pos="0" endPos="28.9" freq="60" file="detectors_output.xml"/>
  <e2Detector id="det_477604194_02_02_2" lane="477604194_02_02_2" pos="0" endPos="28.9" freq="60" file="detectors_output.xml"/>
  <e2Detector id="det_477604200_01_01_0" lane="477604200_01_01_0" pos="0" endPos="20.49" freq="60" file="detectors_output.xml"/>
  <e2Detector id="det_477604200_01_01_1" lane="477604200_01_01_1" pos="0" endPos="20.49" freq="60" file="detectors_output.xml"/>
  <e2Detector id="det_477604200_01_01_2" lane="477604200_01_01_2" pos="0" endPos="20.49" freq="60" file="detectors_output.xml"/>
  <e2Detector id="det_477604200_01_02_0" lane="477604200_01_02_0" pos="0" endPos="20.56" freq="60" file="detectors_output.xml"/>
  <e2Detector id="det_477604200_01_02_1" lane="477604200_01_02_1" pos="0" endPos="20.56" freq="60" file="detectors_output.xml"/>
  <e2Detector id="det_477604200_01_02_2" lane="477604200_01_02_2" pos="0" endPos="20.56" freq="60" file="detectors_output.xml"/>
  <e2Detector id="det_477604200_02_01_0" lane="477604200_02_01_0" pos="0" endPos="24.43" freq="60" file="detectors_output.xml"/>
  <e2Detector id="det_477604200_02_01_1" lane="477604200_02_01_1" pos="0" endPos="24.43" freq="60" file="detectors_output.xml"/>
  <e2Detector id="det_477604200_02_01_2" lane="477604200_02_01_2" pos="0" endPos="24.43" freq="60" file="detectors_output.xml"/>
  <e2Detector id="det_477604200_02_01_3" lane="477604200_02_01_3" pos="0" endPos="24.43" freq="60" file="detectors_output.xml"/>
  <e2Detector id="det_477604200_02_02_0" lane="477604200_02_02_0" pos="0" endPos="24.43" freq="60" file="detectors_output.xml"/>
  <e2Detector id="det_477604200_02_02_1" lane="477604200_02_02_1" pos="0" endPos="24.43" freq="60" file="detectors_output.xml"/>
  <e2Detector id="det_477604248_01_01_0" lane="477604248_01_01_0" pos="0" endPos="46.65" freq="60" file="detectors_output.xml"/>
  <e2Detector id="det_477604248_01_01_1" lane="477604248_01_01_1" pos="0" endPos="46.65" freq="60" file="detectors_output.xml"/>
  <e2Detector id="det_477604248_01_02_0" lane="477604248_01_02_0" pos="0" endPos="46.46" freq="60" file="detectors_output.xml"/>
  <e2Detector id="det_477604248_01_02_1" lane="477604248_01_02_1" pos="0" endPos="46.46" freq="60" file="detectors_output.xml"/>
  <e2Detector id="det_477604248_01_02_2" lane="477604248_01_02_2" pos="0" endPos="46.46" freq="60" file="detectors_output.xml"/>
  <e2Detector id="det_477604248_01_02_3" lane="477604248_01_02_3" pos="0" endPos="46.46" freq="60" file="detectors_output.xml"/>
  <e2Detector id="det_477604248_0201_01_0" lane="477604248_0201_01_0" pos="0" endPos="0.2" freq="60" file="detectors_output.xml"/>
  <e2Detector id="det_477604248_0201_01_1" lane="477604248_0201_01_1" pos="0" endPos="0.2" freq="60" file="detectors_output.xml"/>
  <e2Detector id="det_477604248_0201_01_2" lane="477604248_0201_01_2" pos="0" endPos="0.2" freq="60" file="detectors_output.xml"/>
  <e2Detector id="det_477604248_0201_02_0" lane="477604248_0201_02_0" pos="0" endPos="0.2" freq="60" file="detectors_output.xml"/>
  <e2Detector id="det_477604248_0201_02_1" lane="477604248_0201_02_1" pos="0" endPos="0.2" freq="60" file="detectors_output.xml"/>
  <e2Detector id="det_477604248_0201_02_2" lane="477604248_0201_02_2" pos="0" endPos="0.2" freq="60" file="detectors_output.xml"/>
  <e2Detector id="det_477604248_0202_01_0" lane="477604248_0202_01_0" pos="0" endPos="78.56" freq="60" file="detectors_output.xml"/>
  <e2Detector id="det_477604248_0202_01_1" lane="477604248_0202_01_1" pos="0" endPos="78.56" freq="60" file="detectors_output.xml"/>
  <e2Detector id="det_477604248_0202_01_2" lane="477604248_0202_01_2" pos="0" endPos="78.56" freq="60" file="detectors_output.xml"/>
  <e2Detector id="det_477604248_0202_02_0" lane="477604248_0202_02_0" pos="0" endPos="78.56" freq="60" file="detectors_output.xml"/>
  <e2Detector id="det_477604248_0202_02_1" lane="477604248_0202_02_1" pos="0" endPos="78.56" freq="60" file="detectors_output.xml"/>
  <e2Detector id="det_477604628_01_0" lane="477604628_01_0" pos="0" endPos="24.43" freq="60" file="detectors_output.xml"/>
  <e2Detector id="det_477604628_01_1" lane="477604628_01_1" pos="0" endPos="24.43" freq="60" file="detectors_output.xml"/>
  <e2Detector id="det_477604628_01_2" lane="477604628_01_2" pos="0" endPos="24.43" freq="60" file="detectors_output.xml"/>
  <e2Detector id="det_477604628_02_0" lane="477604628_02_0" pos="0" endPos="24.43" freq="60" file="detectors_output.xml"/>
  <e2Detector id="det_477604628_02_1" lane="477604628_02_1" pos="0" endPos="24.43" freq="60" file="detectors_output.xml"/>
  <e2Detector id="det_477604628_02_2" lane="477604628_02_2" pos="0" endPos="24.43" freq="60" file="detectors_output.xml"/>
  <e2Detector id="det_477604628_02_3" lane="477604628_02_3" pos="0" endPos="24.43" freq="60" file="detectors_output.xml"/>
  <e2Detector id="det_477604635_01_0" lane="477604635_01_0" pos="0" endPos="23.46" freq="60" file="detectors_output.xml"/>
  <e2Detector id="det_477604635_01_1" lane="477604635_01_1" pos="0" endPos="23.46" freq="60" file="detectors_output.xml"/>
  <e2Detector id="det_477604635_01_2" lane="477604635_01_2" pos="0" endPos="23.46" freq="60" file="detectors_output.xml"/>
  <e2Detector id="det_477604635_02_0" lane="477604635_02_0" pos="0" endPos="23.46" freq="60" file="detectors_output.xml"/>
  <e2Detector id="det_477604635_02_1" lane="477604635_02_1" pos="0" endPos="23.46" freq="60" file="detectors_output.xml"/>
  <e2Detector id="det_477604635_02_2" lane="477604635_02_2" pos="0" endPos="23.46" freq="60" file="detectors_output.xml"/>
  <e2Detector id="det_477604635_02_3" lane="477604635_02_3" pos="0" endPos="23.46" freq="60" file="detectors_output.xml"/>
  <e2Detector id="det_477604732_01_0" lane="477604732_01_0" pos="0" endPos="42.8" freq="60" file="detectors_output.xml"/>
  <e2Detector id="det_477604732_01_1" lane="477604732_01_1" pos="0" endPos="42.8" freq="60" file="detectors_output.xml"/>
  <e2Detector id="det_477604732_01_2" lane="477604732_01_2" pos="0" endPos="42.8" freq="60" file="detectors_output.xml"/>
  <e2Detector id="det_477604732_02_0" lane="477604732_02_0" pos="0" endPos="42.8" freq="60" file="detectors_output.xml"/>
  <e2Detector id="det_477604732_02_1" lane="477604732_02_1" pos="0" endPos="42.8" freq="60" file="detectors_output.xml"/>
  <e2Detector id="det_477604739_01_01_0" lane="477604739_01_01_0" pos="0" endPos="26.22" freq="60" file="detectors_output.xml"/>
  <e2Detector id="det_477604739_01_01_1" lane="477604739_01_01_1" pos="0" endPos="26.22" freq="60" file="detectors_output.xml"/>
  <e2Detector id="det_477604739_01_02_0" lane="477604739_01_02_0" pos="0" endPos="26.34" freq="60" file="detectors_output.xml"/>
  <e2Detector id="det_477604739_01_02_1" lane="477604739_01_02_1" pos="0" endPos="26.34" freq="60" file="detectors_output.xml"/>
  <e2Detector id="det_477604739_01_02_2" lane="477604739_01_02_2" pos="0" endPos="26.34" freq="60" file="detectors_output.xml"/>
  <e2Detector id="det_477604739_02_01_0" lane="477604739_02_01_0" pos="0" endPos="26.14" freq="60" file="detectors_output.xml"/>
  <e2Detector id="det_477604739_02_01_1" lane="477604739_02_01_1" pos="0" endPos="26.14" freq="60" file="detectors_output.xml"/>
  <e2Detector id="det_477604739_02_01_2" lane="477604739_02_01_2" pos="0" endPos="26.14" freq="60" file="detectors_output.xml"/>
  <e2Detector id="det_477604739_02_02_0" lane="477604739_02_02_0" pos="0" endPos="26.14" freq="60" file="detectors_output.xml"/>
  <e2Detector id="det_477604739_02_02_1" lane="477604739_02_02_1" pos="0" endPos="26.14" freq="60" file="detectors_output.xml"/>
  <e2Detector id="det_477604809_01_0" lane="477604809_01_0" pos="0" endPos="23.7" freq="60" file="detectors_output.xml"/>
  <e2Detector id="det_477604809_01_1" lane="477604809_01_1" pos="0" endPos="23.7" freq="60" file="detectors_output.xml"/>
  <e2Detector id="det_477604809_01_2" lane="477604809_01_2" pos="0" endPos="23.7" freq="60" file="detectors_output.xml"/>
  <e2Detector id="det_477604809_02_0" lane="477604809_02_0" pos="0" endPos="23.7" freq="60" file="detectors_output.xml"/>
  <e2Detector id="det_477604809_02_1" lane="477604809_02_1" pos="0" endPos="23.7" freq="60" file="detectors_output.xml"/>
  <e2Detector id="det_477604809_02_2" lane="477604809_02_2" pos="0" endPos="23.7" freq="60" file="detectors_output.xml"/>
  <e2Detector id="det_477604809_02_3" lane="477604809_02_3" pos="0" endPos="23.7" freq="60" file="detectors_output.xml"/>
  <e2Detector id="det_477604827_010101_01_0" lane="477604827_010101_01_0" pos="0" endPos="73.32" freq="60" file="detectors_output.xml"/>
  <e2Detector id="det_477604827_010101_01_1" lane="477604827_010101_01_1" pos="0" endPos="73.32" freq="60" file="detectors_output.xml"/>
  <e2Detector id="det_477604827_010101_02_0" lane="477604827_010101_02_0" pos="0" endPos="73.32" freq="60" file="detectors_output.xml"/>
  <e2Detector id="det_477604827_010101_02_1" lane="477604827_010101_02_1" pos="0" endPos="73.32" freq="60" file="detectors_output.xml"/>
  <e2Detector id="det_477604827_010101_02_2" lane="477604827_010101_02_2" pos="0" endPos="73.32" freq="60" file="detectors_output.xml"/>
  <e2Detector id="det_477604827_010102_01_0" lane="477604827_010102_01_0" pos="0" endPos="63.57" freq="60" file="detectors_output.xml"/>
  <e2Detector id="det_477604827_010102_01_1" lane="477604827_010102_01_1" pos="0" endPos="63.57" freq="60" file="detectors_output.xml"/>
  <e2Detector id="det_477604827_010102_01_2" lane="477604827_010102_01_2" pos="0" endPos="63.57" freq="60" file="detectors_output.xml"/>
  <e2Detector id="det_477604827_010102_02_0" lane="477604827_010102_02_0" pos="0" endPos="63.57" freq="60" file="detectors_output.xml"/>
  <e2Detector id="det_477604827_010102_02_1" lane="477604827_010102_02_1" pos="0" endPos="63.57" freq="60" file="detectors_output.xml"/>
  <e2Detector id="det_477604827_010102_02_2" lane="477604827_010102_02_2" pos="0" endPos="63.57" freq="60" file="detectors_output.xml"/>
  <e2Detector id="det_477604827_0102_01_0" lane="477604827_0102_01_0" pos="0" endPos="0.67" freq="60" file="detectors_output.xml"/>
  <e2Detector id="det_477604827_0102_01_1" lane="477604827_0102_01_1" pos="0" endPos="0.67" freq="60" file="detectors_output.xml"/>
  <e2Detector id="det_477604827_0102_01_2" lane="477604827_0102_01_2" pos="0" endPos="0.67" freq="60" file="detectors_output.xml"/>
  <e2Detector id="det_477604827_0102_02_0" lane="477604827_0102_02_0" pos="0" endPos="0.67" freq="60" file="detectors_output.xml"/>
  <e2Detector id="det_477604827_0102_02_1" lane="477604827_0102_02_1" pos="0" endPos="0.67" freq="60" file="detectors_output.xml"/>
  <e2Detector id="det_477604827_0102_02_2" lane="477604827_0102_02_2" pos="0" endPos="0.67" freq="60" file="detectors_output.xml"/>
  <e2Detector id="det_477604827_02_01_0" lane="477604827_02_01_0" pos="0" endPos="123.96" freq="60" file="detectors_output.xml"/>
  <e2Detector id="det_477604827_02_01_1" lane="477604827_02_01_1" pos="0" endPos="123.96" freq="60" file="detectors_output.xml"/>
  <e2Detector id="det_477604827_02_01_2" lane="477604827_02_01_2" pos="0" endPos="123.96" freq="60" file="detectors_output.xml"/>
  <e2Detector id="det_477604827_02_02_0" lane="477604827_02_02_0" pos="0" endPos="124.49" freq="60" file="detectors_output.xml"/>
  <e2Detector id="det_477604827_02_02_1" lane="477604827_02_02_1" pos="0" endPos="124.49" freq="60" file="detectors_output.xml"/>
  <e2Detector id="det_477605406_01_0" lane="477605406_01_0" pos="0" endPos="7.96" freq="60" file="detectors_output.xml"/>
  <e2Detector id="det_477605406_01_1" lane="477605406_01_1" pos="0" endPos="7.96" freq="60" file="detectors_output.xml"/>
  <e2Detector id="det_477605406_01_2" lane="477605406_01_2" pos="0" endPos="7.96" freq="60" file="detectors_output.xml"/>
  <e2Detector id="det_477605406_01_3" lane="477605406_01_3" pos="0" endPos="7.96" freq="60" file="detectors_output.xml"/>
  <e2Detector id="det_477605406_01_4" lane="477605406_01_4" pos="0" endPos="7.96" freq="60" file="detectors_output.xml"/>
  <e2Detector id="det_477605406_01_5" lane="477605406_01_5" pos="0" endPos="7.96" freq="60" file="detectors_output.xml"/>
  <e2Detector id="det_477605406_02_0" lane="477605406_02_0" pos="0" endPos="7.26" freq="60" file="detectors_output.xml"/>
  <e2Detector id="det_477605406_02_1" lane="477605406_02_1" pos="0" endPos="7.26" freq="60" file="detectors_output.xml"/>
  <e2Detector id="det_477605406_02_2" lane="477605406_02_2" pos="0" endPos="7.26" freq="60" file="detectors_output.xml"/>
  <e2Detector id="det_477605406_02_3" lane="477605406_02_3" pos="0" endPos="7.26" freq="60" file="detectors_output.xml"/>
  <e2Detector id="det_477605406_02_4" lane="477605406_02_4" pos="0" endPos="7.26" freq="60" file="detectors_output.xml"/>
  <e2Detector id="det_477605406_02_5" lane="477605406_02_5" pos="0" endPos="7.26" freq="60" file="detectors_output.xml"/>
  <e2Detector id="det_477605419_01_0" lane="477605419_01_0" pos="0" endPos="7.46" freq="60" file="detectors_output.xml"/>
  <e2Detector id="det_477605419_01_1" lane="477605419_01_1" pos="0" endPos="7.46" freq="60" file="detectors_output.xml"/>
  <e2Detector id="det_477605419_01_2" lane="477605419_01_2" pos="0" endPos="7.46" freq="60" file="detectors_output.xml"/>
  <e2Detector id="det_477605419_01_3" lane="477605419_01_3" pos="0" endPos="7.46" freq="60" file="detectors_output.xml"/>
  <e2Detector id="det_477605419_02_0" lane="477605419_02_0" pos="0" endPos="7.46" freq="60" file="detectors_output.xml"/>
  <e2Detector id="det_477605419_02_1" lane="477605419_02_1" pos="0" endPos="7.46" freq="60" file="detectors_output.xml"/>
  <e2Detector id="det_477605419_02_2" lane="477605419_02_2" pos="0" endPos="7.46" freq="60" file="detectors_output.xml"/>
  <e2Detector id="det_477605419_02_3" lane="477605419_02_3" pos="0" endPos="7.46" freq="60" file="detectors_output.xml"/>
  <e2Detector id="det_477605419_02_4" lane="477605419_02_4" pos="0" endPos="7.46" freq="60" file="detectors_output.xml"/>
  <e2Detector id="det_477605452_01_0" lane="477605452_01_0" pos="0" endPos="9.08" freq="60" file="detectors_output.xml"/>
  <e2Detector id="det_477605452_01_1" lane="477605452_01_1" pos="0" endPos="9.08" freq="60" file="detectors_output.xml"/>
  <e2Detector id="det_477605452_01_2" lane="477605452_01_2" pos="0" endPos="9.08" freq="60" file="detectors_output.xml"/>
  <e2Detector id="det_477605452_01_3" lane="477605452_01_3" pos="0" endPos="9.08" freq="60" file="detectors_output.xml"/>
  <e2Detector id="det_477605452_01_4" lane="477605452_01_4" pos="0" endPos="9.08" freq="60" file="detectors_output.xml"/>
  <e2Detector id="det_477605452_02_0" lane="477605452_02_0" pos="0" endPos="9.08" freq="60" file="detectors_output.xml"/>
  <e2Detector id="det_477605452_02_1" lane="477605452_02_1" pos="0" endPos="9.08" freq="60" file="detectors_output.xml"/>
  <e2Detector id="det_477605452_02_2" lane="477605452_02_2" pos="0" endPos="9.08" freq="60" file="detectors_output.xml"/>
  <e2Detector id="det_477605452_02_3" lane="477605452_02_3" pos="0" endPos="9.08" freq="60" file="detectors_output.xml"/>
  <e2Detector id="det_477605452_02_4" lane="477605452_02_4" pos="0" endPos="9.08" freq="60" file="detectors_output.xml"/>
  <e2Detector id="det_477605452_02_5" lane="477605452_02_5" pos="0" endPos="9.08" freq="60" file="detectors_output.xml"/>
  <e2Detector id="det_477605452_02_6" lane="477605452_02_6" pos="0" endPos="9.08" freq="60" file="detectors_output.xml"/>
  <e2Detector id="det_477605619_01_0" lane="477605619_01_0" pos="0" endPos="11.36" freq="60" file="detectors_output.xml"/>
  <e2Detector id="det_477605619_01_1" lane="477605619_01_1" pos="0" endPos="11.36" freq="60" file="detectors_output.xml"/>
  <e2Detector id="det_477605619_01_2" lane="477605619_01_2" pos="0" endPos="11.36" freq="60" file="detectors_output.xml"/>
  <e2Detector id="det_477605619_01_3" lane="477605619_01_3" pos="0" endPos="11.36" freq="60" file="detectors_output.xml"/>
  <e2Detector id="det_477605619_01_4" lane="477605619_01_4" pos="0" endPos="11.36" freq="60" file="detectors_output.xml"/>
  <e2Detector id="det_477605619_01_5" lane="477605619_01_5" pos="0" endPos="11.36" freq="60" file="detectors_output.xml"/>
  <e2Detector id="det_477605619_02_0" lane="477605619_02_0" pos="0" endPos="11.36" freq="60" file="detectors_output.xml"/>
  <e2Detector id="det_477605619_02_1" lane="477605619_02_1" pos="0" endPos="11.36" freq="60" file="detectors_output.xml"/>
  <e2Detector id="det_477605619_02_2" lane="477605619_02_2" pos="0" endPos="11.36" freq="60" file="detectors_output.xml"/>
  <e2Detector id="det_477605619_02_3" lane="477605619_02_3" pos="0" endPos="11.36" freq="60" file="detectors_output.xml"/>
  <e2Detector id="det_477605619_02_4" lane="477605619_02_4" pos="0" endPos="11.36" freq="60" file="detectors_output.xml"/>
  <e2Detector id="det_477605619_02_5" lane="477605619_02_5" pos="0" endPos="11.36" freq="60" file="detectors_output.xml"/>
  <e2Detector id="det_477605685_01_0" lane="477605685_01_0" pos="0" endPos="14.64" freq="60" file="detectors_output.xml"/>
  <e2Detector id="det_477605685_01_1" lane="477605685_01_1" pos="0" endPos="14.64" freq="60" file="detectors_output.xml"/>
  <e2Detector id="det_477605685_01_2" lane="477605685_01_2" pos="0" endPos="14.64" freq="60" file="detectors_output.xml"/>
  <e2Detector id="det_477605685_01_3" lane="477605685_01_3" pos="0" endPos="14.64" freq="60" file="detectors_output.xml"/>
  <e2Detector id="det_477605685_02_0" lane="477605685_02_0" pos="0" endPos="14.64" freq="60" file="detectors_output.xml"/>
  <e2Detector id="det_477605685_02_1" lane="477605685_02_1" pos="0" endPos="14.64" freq="60" file="detectors_output.xml"/>
  <e2Detector id="det_477605685_02_2" lane="477605685_02_2" pos="0" endPos="14.64" freq="60" file="detectors_output.xml"/>
  <e2Detector id="det_477605685_02_3" lane="477605685_02_3" pos="0" endPos="14.64" freq="60" file="detectors_output.xml"/>
  <e2Detector id="det_477605685_02_4" lane="477605685_02_4" pos="0" endPos="14.64" freq="60" file="detectors_output.xml"/>
  <e2Detector id="det_477610002_01_0" lane="477610002_01_0" pos="0" endPos="49.58" freq="60" file="detectors_output.xml"/>
  <e2Detector id="det_477610002_01_1" lane="477610002_01_1" pos="0" endPos="49.58" freq="60" file="detectors_output.xml"/>
  <e2Detector id="det_477610002_02_0" lane="477610002_02_0" pos="0" endPos="49.58" freq="60" file="detectors_output.xml"/>
  <e2Detector id="det_477610002_02_1" lane="477610002_02_1" pos="0" endPos="49.58" freq="60" file="detectors_output.xml"/>
  <e2Detector id="det_477610002_02_2" lane="477610002_02_2" pos="0" endPos="49.58" freq="60" file="detectors_output.xml"/>
  <e2Detector id="det_477610003_0101_01_0" lane="477610003_0101_01_0" pos="0" endPos="24.12" freq="60" file="detectors_output.xml"/>
  <e2Detector id="det_477610003_0101_01_1" lane="477610003_0101_01_1" pos="0" endPos="24.12" freq="60" file="detectors_output.xml"/>
  <e2Detector id="det_477610003_0101_02_0" lane="477610003_0101_02_0" pos="0" endPos="24.09" freq="60" file="detectors_output.xml"/>
  <e2Detector id="det_477610003_0101_02_1" lane="477610003_0101_02_1" pos="0" endPos="24.09" freq="60" file="detectors_output.xml"/>
  <e2Detector id="det_477610003_0101_02_2" lane="477610003_0101_02_2" pos="0" endPos="24.09" freq="60" file="detectors_output.xml"/>
  <e2Detector id="det_477610003_0102_01_0" lane="477610003_0102_01_0" pos="0" endPos="39.95" freq="60" file="detectors_output.xml"/>
  <e2Detector id="det_477610003_0102_01_1" lane="477610003_0102_01_1" pos="0" endPos="39.95" freq="60" file="detectors_output.xml"/>