<additional>
  <phase duration="52" state="gGGrgrrrgGGrgrrr"/>
  <phase duration="25" state="grrGgrrrgrrGgrrr"/>
  <phase duration="28" state="grrrgGGGgrrrgrrr"/>
  <phase duration="15" state="grrrgrrrgrrrgGGG"/>
  <phase duration="3" state="grrrgrrrgrrrgyyy"/>
  <phase duration="3" state="grrrgyyygrrrgrrr"/>
  <phase duration="3" state="grrygrrrgrrygrrr"/>
  <phase duration="3" state="gyyrgrrrgyyrgrrr"/>
  <phase duration="55" state="gGGrgrrrrgGGrgrrr"/>
  <phase duration="50" state="grrGgrrrrgrrGgrrr"/>
  <phase duration="19" state="grrrgGGGrgrrrgGGr"/>
  <phase duration="32" state="grrrgrrrGgrrrgrrG"/>
  <phase duration="3" state="grrrgrrrygrrrgrry"/>
  <phase duration="3" state="grrrgyyyrgrrrgyyr"/>
  <phase duration="3" state="grrygrrrrgrrygrrr"/>
  <phase duration="3" state="gyyrgrrrrgyyrgrrr"/>
  <phase duration="17" state="gGGrgrrrrgGGrgrrrr"/>
  <phase duration="44" state="grrGgrrrrgrrGgrrrr"/>
  <phase duration="21" state="grrrgGGrrgrrrgGGrr"/>
  <phase duration="39" state="grrrgrrGggrrrgrrGg"/>
  <phase duration="3" state="grrrgrryggrrrgrryg"/>
  <phase duration="3" state="grrrgyyrrgrrrgyyrr"/>
  <phase duration="3" state="grrygrrrrgrrygrrrr"/>
  <phase duration="3" state="gyyrgrrrrgyyrgrrrr"/>
  <phase duration="53" state="gGGrgrrrrgGGrgrrr"/>
  <phase duration="31" state="grrGgrrrrgrrGgrrr"/>
  <phase duration="20" state="grrrgGGGggrrrgrrr"/>
  <phase duration="15" state="grrrgrrrrgrrrgGGG"/>
  <phase duration="3" state="grrrgrrrrgrrrgyyy"/>
  <phase duration="3" state="grrrgyyyggrrrgrrr"/>
  <phase duration="3" state="grrygrrrrgrrygrrr"/>
  <phase duration="2" state="gyyrgrrrrgyyrgrrr"/>
  <phase duration="42" state="gGGGGGrrgrrrgGGGGGrrgrrr"/>
  <phase duration="69" state="grrrrrGggrrrgrrrrrGggrrr"/>
  <phase duration="20" state="grrrrrrggGGGgrrrrrrrgrrr"/>
  <phase duration="4" state="grrrrrrggyyygrrrrrrrgrrr"/>
  <phase duration="42" state="grrrrrrrgrrrgrrrrrrrgGGg"/>
  <phase duration="4" state="grrrrrrrgrrrgrrrrrrrgyyg"/>
  <phase duration="4" state="grrrrryggrrrgrrrrryggrrr"/>
  <phase duration="4" state="gyyyyyrrgrrrgyyyyyrrgrrr"/>
  <phase duration="56" state="gGGrgrrrgGGrrgrrr"/>
  <phase duration="55" state="grrGgrrrgrrGggrrr"/>
  <phase duration="26" state="grrrgGGggrrrrgrrr"/>
  <phase duration="19" state="grrrgrrrgrrrrgGGg"/>
  <phase duration="3" state="grrrgrrrgrrrrgyyg"/>
  <phase duration="3" state="grrrgyyggrrrrgrrr"/>
  <phase duration="3" state="grrygrrrgrryggrrr"/>
  <phase duration="2" state="gyyrgrrrgyyrrgrrr"/>
  <phase duration="17" state="gGGrrgrrrrgGGrgrrrr"/>
  <phase duration="40" state="grrGggrrrrgrrGgrrrr"/>
  <phase duration="17" state="grrrrgGGrrgrrrgGGrr"/>
  <phase duration="44" state="grrrrgrrGggrrrgrrGg"/>
  <phase duration="3" state="grrrrgrryggrrrgrryg"/>
  <phase duration="2" state="grrrrgyyrrgrrrgyyrr"/>
  <phase duration="3" state="grryggrrrrgrrygrrrr"/>
  <phase duration="3" state="gyyrrgrrrrgyyrgrrrr"/>
  <phase duration="43" state="GGGGrrrrrrrgGGGGrrrrrrr"/>
  <phase duration="70" state="rrrrGgrrrrrgrrrrGgrrrrr"/>
  <phase duration="43" state="rrrrrgGGGGggrrrrrrrrrrr"/>
  <phase duration="4" state="rrrrrgyyyyggrrrrrrrrrrr"/>
  <phase duration="18" state="rrrrrrrrrrrgrrrrrrGGGGg"/>
  <phase duration="4" state="rrrrrrrrrrrgrrrrrryyyyg"/>
  <phase duration="4" state="rrrrygrrrrrgrrrrygrrrrr"/>
  <phase duration="4" state="yyyyrrrrrrrgyyyyrrrrrrr"/>
  <phase duration="21" state="gGGrgrrrrrrrgGGrgrrrrrrr"/>
  <phase duration="45" state="grrGgrrrrrrrgrrGgrrrrrrr"/>
  <phase duration="19" state="grrrgGGGGGrrgrrrgGGGGGrr"/>
  <phase duration="68" state="grrrgrrrrrGggrrrgrrrrrGg"/>
  <phase duration="4" state="grrrgrrrrryggrrrgrrrrryg"/>
  <phase duration="4" state="grrrgyyyyyrrgrrrgyyyyyrr"/>
  <phase duration="3" state="grrygrrrrrrrgrrygrrrrrrr"/>
  <phase duration="4" state="gyyrgrrrrrrrgyyrgrrrrrrr"/>
  <phase duration="25" state="gGGrgrrrrrrrrgGGrrgrrrrrrr"/>
  <phase duration="42" state="grrGgrrrrrrrrgrrGGgrrrrrrr"/>
  <phase duration="21" state="grrrgGGGGGGrrgrrrrgGGGGGrr"/>
  <phase duration="65" state="grrrgrrrrrrGggrrrrgrrrrrGg"/>
  <phase duration="4" state="grrrgrrrrrryggrrrrgrrrrryg"/>
  <phase duration="4" state="grrrgyyyyyyrrgrrrrgyyyyyrr"/>
  <phase duration="4" state="grrygrrrrrrrrgrryygrrrrrrr"/>
  <phase duration="4" state="gyyrgrrrrrrrrgyyrrgrrrrrrr"/>
  <phase duration="42" state="gGGGGGGrrgrrrrgGGGGGGggrrrr"/>
  <phase duration="69" state="grrrrrrGggrrrrgrrrrGGggrrrr"/>
  <phase duration="20" state="grrrrrrrggGGGGgrrrrrrrgrrrr"/>
  <phase duration="4" state="grrrrrrrggyyyygrrrrrrrgrrrr"/>
  <phase duration="23" state="grrrrrrrrgrrrrgrrrrrrrgGGGG"/>
  <phase duration="4" state="grrrrrryggrrrrgrrrryyggrrrr"/>
  <phase duration="4" state="gyyyyyyrrgrrrrgyyyyyyggrrrr"/>
  <phase duration="41" state="gGGGGrrrrrrrgGGGGrrrrrrrrg"/>
  <phase duration="68" state="grrrrGGgrrrrgrrrrGGgrrrrrr"/>
  <phase duration="23" state="grrrrrrgGGGGgrrrrrrrrrrrrr"/>
  <phase duration="4" state="grrrrrrgyyyygrrrrrrrrrrrrr"/>
  <phase duration="41" state="grrrrrrrrrrrgrrrrrrrGGGGGg"/>
  <phase duration="4" state="grrrrrrrrrrrgrrrrrrryyyyyg"/>
  <phase duration="4" state="grrrryygrrrrgrrrryygrrrrrr"/>
  <phase duration="4" state="gyyyyrrrrrrrgyyyyrrrrrrrrg"/>
</additional>
